-- Copyright (C) 2026 NORCE Research AS
-- flow MODEL6.DATA
-- pycopm -i MODEL6.DATA -w STANDARD -t 2 -a max -z 1:4 -l S 
-- pycopm -i MODEL6.DATA -w DUAL -t 2 -a max -z 1:4 -l D -dual 'poro == 0.1'
----------------------------------------------------------------------------
RUNSPEC
----------------------------------------------------------------------------
DIMENS 
8 1 4 /

EQLDIMS
/

TABDIMS
/

CO2STORE
GAS
WATER

METRIC

START
1 JAN 2025 /

WELLDIMS
/

UNIFOUT
----------------------------------------------------------------------------
GRID
----------------------------------------------------------------------------
INIT

COORD
     0   0 0      0   0 2E3
 2.5E3   0 0  2.5E3   0 2E3
   5E3   0 0    5E3   0 2E3
 7.5E3   0 0  7.5E3   0 2E3
  10E3   0 0   10E3   0 2E3
12.5E3   0 0 12.5E3   0 2E3
  15E3   0 0   15E3   0 2E3
17.5E3   0 0 17.5E3   0 2E3
  20E3   0 0   20E3   0 2E3
     0 1E3 0      0 1E3 2E3
 2.5E3 1E3 0  2.5E3 1E3 2E3
   5E3 1E3 0    5E3 1E3 2E3
 7.5E3 1E3 0  7.5E3 1E3 2E3
  10E3 1E3 0   10E3 1E3 2E3
12.5E3 1E3 0 12.5E3 1E3 2E3
  15E3 1E3 0   15E3 1E3 2E3
17.5E3 1E3 0 17.5E3 1E3 2E3
  20E3 1E3 0   20E3 1E3 2E3 /

ZCORN
 5E2  5E2    12*0  5E2  5E2 5E2   5E2    12*0  5E2  5E2
15E2 15E2  12*5E2 15E2 15E2 15E2 15E2  12*5E2 15E2 15E2

15E2 15E2  12*5E2 15E2 15E2 15E2 15E2  12*5E2 15E2 15E2
15E2 15E2 12*10E2 15E2 15E2 15E2 15E2 12*10E2 15E2 15E2

15E2 15E2 12*10E2 15E2 15E2 15E2 15E2 12*10E2 15E2 15E2
15E2 15E2 12*15E2 15E2 15E2 15E2 15E2 12*15E2 15E2 15E2

15E2 15E2 12*15E2 15E2 15E2 15E2 15E2 12*15E2 15E2 15E2
15E2 15E2 12*20E2 15E2 15E2 15E2 15E2 12*20E2 15E2 15E2
/

FLUXNUM
1 1 1 1 1 1 1 1
0 1 2 2 2 2 1 0
0 1 1 1 1 1 1 0
0 1 2 2 2 2 1 0
/

EQUALREG
PORO        0 0 F /
PORO     0.25 1 F /
PORO     1e-1 2 F /
PERMX       0 0 F /
PERMX 101.325 1 F /
PERMX    1e-2 2 F /
PERMY       0 0 F /
PERMY 101.325 1 F /
PERMY    1e-2 2 F /
PERMZ       0 0 F /
PERMZ 101.325 1 F /
PERMZ    1e-2 2 F /
/
----------------------------------------------------------------------------
PROPS
----------------------------------------------------------------------------
SGWFN
0 0 1 0
1 1 0 0 /

ROCK
276 4.934e-05 /
----------------------------------------------------------------------------
SOLUTION
----------------------------------------------------------------------------
EQUIL
0 200.0 0 0 0 0 1 1 0 /

RPTRST 
BASIC=2 RPORV /
----------------------------------------------------------------------------
SUMMARY
----------------------------------------------------------------------------
BPR
8 1 1 /
/
----------------------------------------------------------------------------
SCHEDULE
----------------------------------------------------------------------------
RPTRST
BASIC=2 RPORV /

SOURCE
1 1 1 WATER 8.015165E+06 /
/
TSTEP
9131.25 /

SOURCE
1 1 1 WATER 0 /
/
TSTEP
3652.5 /
